data_image0
_chemical_formula_structural       C48H28O36Ti8
_chemical_formula_sum              "C48 H28 O36 Ti8"
_cell_length_a       16.254635322172714
_cell_length_b       16.254635322172714
_cell_length_c       16.254635322172714
_cell_angle_alpha    108.11459044990332
_cell_angle_beta     108.11459044990332
_cell_angle_gamma    112.21994472986327

_space_group_name_H-M_alt    "P 1"
_space_group_IT_number       1

loop_
  _space_group_symop_operation_xyz
  'x, y, z'

loop_
  _atom_site_type_symbol
  _atom_site_label
  _atom_site_symmetry_multiplicity
  _atom_site_fract_x
  _atom_site_fract_y
  _atom_site_fract_z
  _atom_site_occupancy
  C   C1        1.0  0.5000000000000001  0.8485529999999999  0.3485529999999999  1.0000
  C   C2        1.0  0.5  0.1514470000000001  0.6514470000000001  1.0000
  C   C3        1.0  0.15144700000000014  0.5  0.6514470000000001  1.0000
  C   C4        1.0  0.848553  0.5  0.3485529999999999  1.0000
  C   C5        1.0  0.5000000000000001  0.9267120000000001  0.426712  1.0000
  C   C6        1.0  0.5  0.07328800000000003  0.573288  1.0000
  C   C7        1.0  0.07328800000000003  0.5  0.573288  1.0000
  C   C8        1.0  0.9267120000000003  0.5  0.4267120000000001  1.0000
  C   C9        1.0  0.5637160000000001  0.963545  0.5272610000000002  1.0000
  C   C10       1.0  0.4362839999999999  0.036454999999999925  0.47273899999999985  1.0000
  C   C11       1.0  0.03645500000000003  0.5637160000000001  0.6001710000000001  1.0000
  C   C12       1.0  0.9635450000000001  0.43628399999999984  0.39982899999999993  1.0000
  C   C13       1.0  0.9635450000000003  0.5637160000000002  0.5272610000000002  1.0000
  C   C14       1.0  0.03645499999999993  0.4362839999999999  0.47273899999999985  1.0000
  C   C15       1.0  0.4362839999999999  0.963545  0.39982899999999993  1.0000
  C   C16       1.0  0.5637160000000003  0.03645499999999994  0.6001710000000001  1.0000
  C   C17       1.0  0.5434910000000001  0.5434910000000002  0.4509660000000001  1.0000
  C   C18       1.0  0.4565089999999998  0.4565089999999998  0.5490339999999998  1.0000
  C   C19       1.0  0.9074749999999999  0.907475  0.4509660000000001  1.0000
  C   C20       1.0  0.09252500000000001  0.09252500000000001  0.5490339999999998  1.0000
  C   C21       1.0  0.09252499999999997  0.5434910000000002  0.0  1.0000
  C   C22       1.0  0.9074750000000003  0.4565089999999999  0.0  1.0000
  C   C23       1.0  0.45650899999999967  0.9074749999999999  0.0  1.0000
  C   C24       1.0  0.5434910000000002  0.09252499999999998  0.0  1.0000
  C   C25       1.0  0.5886690000000002  0.5886690000000003  0.39718800000000026  1.0000
  C   C26       1.0  0.41133099999999967  0.41133099999999967  0.6028119999999997  1.0000
  C   C27       1.0  0.8085189999999999  0.808519  0.39718800000000026  1.0000
  C   C28       1.0  0.19148100000000007  0.19148100000000004  0.6028119999999997  1.0000
  C   C29       1.0  0.19148099999999996  0.5886690000000003  0.0  1.0000
  C   C30       1.0  0.808519  0.41133099999999967  0.0  1.0000
  C   C31       1.0  0.4113309999999996  0.808519  0.0  1.0000
  C   C32       1.0  0.5886690000000003  0.191481  0.0  1.0000
  C   C33       1.0  0.5666470000000001  0.4765930000000002  0.47562000000000004  1.0000
  C   C34       1.0  0.4333529999999999  0.5234069999999998  0.52438  1.0000
  C   C35       1.0  0.9990269999999997  0.9089729999999998  0.47562000000000004  1.0000
  C   C36       1.0  0.0009730000000001547  0.09102700000000012  0.52438  1.0000
  C   C37       1.0  0.09102700000000022  0.5666470000000002  0.09005400000000004  1.0000
  C   C38       1.0  0.9089729999999998  0.43335299999999993  0.9099459999999999  1.0000
  C   C39       1.0  0.5234069999999998  0.9990269999999999  0.09005400000000004  1.0000
  C   C40       1.0  0.4765930000000002  0.0009730000000001252  0.9099459999999999  1.0000
  C   C41       1.0  0.9089729999999998  0.9990269999999997  0.47562000000000004  1.0000
  C   C42       1.0  0.09102700000000012  0.0009730000000001497  0.52438  1.0000
  C   C43       1.0  0.4765930000000002  0.5666470000000001  0.47562000000000004  1.0000
  C   C44       1.0  0.523407  0.43335299999999993  0.52438  1.0000
  C   C45       1.0  0.433353  0.9089729999999998  0.9099459999999999  1.0000
  C   C46       1.0  0.5666470000000001  0.0910270000000001  0.09005400000000004  1.0000
  C   C47       1.0  0.0009730000000001663  0.4765930000000002  0.9099459999999999  1.0000
  C   C48       1.0  0.9990269999999999  0.523407  0.09005400000000004  1.0000
  H   H1        1.0  0.38148999999999983  0.5407789999999999  0.544227  1.0000
  H   H2        1.0  0.6185100000000003  0.4592210000000002  0.45577300000000004  1.0000
  H   H3        1.0  0.0034480000000001337  0.16273700000000016  0.544227  1.0000
  H   H4        1.0  0.9965519999999998  0.837263  0.45577300000000004  1.0000
  H   H5        1.0  0.8372629999999999  0.38148999999999994  0.840711  1.0000
  H   H6        1.0  0.16273700000000005  0.6185100000000001  0.15928899999999996  1.0000
  H   H7        1.0  0.45922100000000016  0.00344800000000013  0.840711  1.0000
  H   H8        1.0  0.5407789999999998  0.9965519999999999  0.15928899999999996  1.0000
  H   H9        1.0  0.0034480000000002035  0.4592210000000002  0.840711  1.0000
  H   H10       1.0  0.9965519999999998  0.5407789999999999  0.15928899999999996  1.0000
  H   H11       1.0  0.38148999999999994  0.837263  0.840711  1.0000
  H   H12       1.0  0.6185100000000002  0.16273700000000021  0.15928899999999996  1.0000
  H   H13       1.0  0.45922100000000016  0.6185100000000001  0.45577300000000004  1.0000
  H   H14       1.0  0.5407789999999998  0.38148999999999994  0.544227  1.0000
  H   H15       1.0  0.8372629999999998  0.9965519999999999  0.45577300000000004  1.0000
  H   H16       1.0  0.16273700000000008  0.00344800000000013  0.544227  1.0000
  H   H17       1.0  0.573804  0.426196  2.327248119972072e-17  1.0000
  H   H18       1.0  0.4261960000000001  0.573804  0.0  1.0000
  H   H19       1.0  0.42619600000000024  0.426196  0.8523920000000001  1.0000
  H   H20       1.0  0.573804  0.573804  0.147608  1.0000
  H   H21       1.0  0.06572600000000009  0.38726499999999997  0.4529910000000001  1.0000
  H   H22       1.0  0.934274  0.6127350000000001  0.547009  1.0000
  H   H23       1.0  0.6127350000000001  0.06572600000000008  0.6784610000000001  1.0000
  H   H24       1.0  0.38726500000000014  0.934274  0.32153899999999996  1.0000
  H   H25       1.0  0.38726499999999997  0.06572600000000008  0.4529910000000001  1.0000
  H   H26       1.0  0.6127350000000001  0.934274  0.547009  1.0000
  H   H27       1.0  0.9342739999999999  0.3872650000000001  0.3215389999999999  1.0000
  H   H28       1.0  0.06572600000000013  0.612735  0.6784610000000001  1.0000
  O   O1        1.0  0.5591160000000002  0.816903  0.376019  1.0000
  O   O2        1.0  0.440884  0.18309700000000004  0.623981  1.0000
  O   O3        1.0  0.1830970000000001  0.559116  0.742213  1.0000
  O   O4        1.0  0.816903  0.440884  0.257787  1.0000
  O   O5        1.0  0.8169029999999999  0.5591160000000001  0.376019  1.0000
  O   O6        1.0  0.183097  0.440884  0.623981  1.0000
  O   O7        1.0  0.44088400000000016  0.816903  0.25778699999999993  1.0000
  O   O8        1.0  0.559116  0.18309700000000007  0.742213  1.0000
  O   O9        1.0  0.432344  0.631495  0.19915100000000005  1.0000
  O   O10       1.0  0.567656  0.3685049999999999  0.800849  1.0000
  O   O11       1.0  0.5676559999999999  0.766807  0.19915100000000005  1.0000
  O   O12       1.0  0.43234400000000023  0.23319300000000004  0.800849  1.0000
  O   O13       1.0  0.2331930000000001  0.43234400000000006  0.800849  1.0000
  O   O14       1.0  0.766807  0.5676559999999999  0.19915100000000008  1.0000
  O   O15       1.0  0.3685049999999999  0.5676559999999999  0.800849  1.0000
  O   O16       1.0  0.6314950000000003  0.43234400000000006  0.19915100000000008  1.0000
  O   O17       1.0  0.5649030000000003  0.648345  0.375464  1.0000
  O   O18       1.0  0.43509699999999984  0.35165500000000005  0.624536  1.0000
  O   O19       1.0  0.7271190000000002  0.8105609999999999  0.375464  1.0000
  O   O20       1.0  0.272881  0.18943900000000016  0.624536  1.0000
  O   O21       1.0  0.1894390000000002  0.5649030000000002  0.9165580000000002  1.0000
  O   O22       1.0  0.810561  0.43509699999999984  0.08344199999999981  1.0000
  O   O23       1.0  0.3516550000000002  0.7271190000000002  0.9165580000000002  1.0000
  O   O24       1.0  0.648345  0.2728809999999999  0.08344199999999981  1.0000
  O   O25       1.0  0.810561  0.7271190000000001  0.3754640000000001  1.0000
  O   O26       1.0  0.18943900000000016  0.27288099999999993  0.624536  1.0000
  O   O27       1.0  0.6483450000000001  0.5649030000000002  0.3754640000000001  1.0000
  O   O28       1.0  0.35165500000000016  0.4350969999999999  0.624536  1.0000
  O   O29       1.0  0.4350969999999999  0.810561  0.08344199999999981  1.0000
  O   O30       1.0  0.5649030000000003  0.18943900000000016  0.9165580000000002  1.0000
  O   O31       1.0  0.2728809999999999  0.648345  0.08344199999999981  1.0000
  O   O32       1.0  0.7271190000000002  0.3516550000000001  0.9165580000000002  1.0000
  O   O33       1.0  0.609745  0.609745  0.21949000000000005  1.0000
  O   O34       1.0  0.390255  0.390255  0.78051  1.0000
  O   O35       1.0  0.3902550000000001  0.609745  0.0  1.0000
  O   O36       1.0  0.609745  0.390255  0.0  1.0000
  Ti  Ti1       1.0  0.5718700000000002  0.28984  0.8617100000000001  1.0000
  Ti  Ti2       1.0  0.42812999999999996  0.71016  0.13828999999999997  1.0000
  Ti  Ti3       1.0  0.28984  0.42813000000000007  0.71797  1.0000
  Ti  Ti4       1.0  0.71016  0.5718700000000001  0.28203000000000017  1.0000
  Ti  Ti5       1.0  0.71016  0.42812999999999996  0.13828999999999997  1.0000
  Ti  Ti6       1.0  0.28984  0.5718700000000001  0.8617100000000001  1.0000
  Ti  Ti7       1.0  0.42813000000000007  0.28984  0.71797  1.0000
  Ti  Ti8       1.0  0.5718700000000001  0.71016  0.2820300000000001  1.0000
