LAMMPS (23 Jun 2022 - Update 1)
units            real
atom_style	 full
boundary         p p p

atom_style       full

pair_style	 hybrid/overlay lj/cut/tip4p/long 6 7 8 13 0.1250 10.0 8.5

pair_modify      tail yes

bond_style       hybrid harmonic

angle_style      hybrid fourier cosine/periodic harmonic

dihedral_style   hybrid harmonic

improper_style   hybrid fourier

dielectric	 1.0

box tilt         large

neighbor         1.0 bin
neigh_modify     delay 0 every 1 check yes

read_data        data.ATOXAJ.cif  extra/atom/types 2 extra/bond/types 1 extra/angle/types 1 extra/dihedral/types 0 extra/improper/types 0
Reading data file ...
  triclinic box = (0 0 0) to (21.85 21.56667 27.377718) with tilt (-3.760108 -4.482163 -3.352298)
  reading atoms ...
  864 atoms
  scanning bonds ...
  scanning angles ...
  scanning dihedrals ...
  scanning impropers ...
  reading bonds ...
  1008 bonds
  reading angles ...
  1792 angles
  reading dihedrals ...
  2112 dihedrals
  reading impropers ...
  1344 impropers
Finding 1-2 1-3 1-4 neighbors ...
     5 = max # of 1-2 neighbors
     8 = max # of 1-3 neighbors
    18 = max # of 1-4 neighbors
    23 = max # of special neighbors
read_data        data.adsorbate  add append offset 5 7 12 3 1
Reading data file ...
  triclinic box = (0 0 0) to (21.85 21.56667 27.377719) with tilt (-3.760108 -4.482163 -3.352298)
  reading atoms ...
  384 atoms
  scanning bonds ...
  scanning angles ...
  reading bonds ...
  256 bonds
  reading angles ...
  128 angles
Finding 1-2 1-3 1-4 neighbors ...
     5 = max # of 1-2 neighbors
     8 = max # of 1-3 neighbors
    18 = max # of 1-4 neighbors
    23 = max # of special neighbors
include          data.pair
pair_coeff    1    1    lj/cut/tip4p/long    0.124    2.4615531582217574
pair_coeff    1    2    lj/cut/tip4p/long    0.07386474125047755    2.5163434293873883
pair_coeff    1    3    lj/cut/tip4p/long    0.11410521460476729    2.946202060890102
pair_coeff    1    4    lj/cut/tip4p/long    0.09249864863877742    2.8611212333076996
pair_coeff    1    5    lj/cut/tip4p/long    0.08625543461139129    2.7898493358564727
pair_coeff    1    6    lj/cut/tip4p/long    0.13863621460498696    2.8075765791108784
pair_coeff    1    7    lj/cut/tip4p/long    0.0    1.7307765791108787
pair_coeff    2    2    lj/cut/tip4p/long    0.044    2.5711337005530193
pair_coeff    2    3    lj/cut/tip4p/long    0.0679705818718657    3.000992332055733
pair_coeff    2    4    lj/cut/tip4p/long    0.05509990925582364    2.9159115044733306
pair_coeff    2    5    lj/cut/tip4p/long    0.05138093031466051    2.8446396070221036
pair_coeff    2    6    lj/cut/tip4p/long    0.08258329128825032    2.8623668502765094
pair_coeff    2    7    lj/cut/tip4p/long    0.0    1.7855668502765096
pair_coeff    3    3    lj/cut/tip4p/long    0.105    3.4308509635584463
pair_coeff    3    4    lj/cut/tip4p/long    0.08511756575466665    3.345770135976044
pair_coeff    3    5    lj/cut/tip4p/long    0.07937253933193772    3.274498238524817
pair_coeff    3    6    lj/cut/tip4p/long    0.12757350822173072    3.292225481779223
pair_coeff    3    7    lj/cut/tip4p/long    0.0    2.2154254817792234
pair_coeff    4    4    lj/cut/tip4p/long    0.069    3.260689308393642
pair_coeff    4    5    lj/cut/tip4p/long    0.06434283176858166    3.189417410942415
pair_coeff    4    6    lj/cut/tip4p/long    0.10341663309158736    3.2071446541968207
pair_coeff    4    7    lj/cut/tip4p/long    0.0    2.130344654196821
pair_coeff    5    5    lj/cut/tip4p/long    0.06    3.1181455134911875
pair_coeff    5    6    lj/cut/tip4p/long    0.09643650760992954    3.1358727567455937
pair_coeff    5    7    lj/cut/tip4p/long    0.0    2.0590727567455938
pair_coeff    6    6    lj/cut/tip4p/long    0.155    3.1536
pair_coeff    6    7    lj/cut/tip4p/long    0.0    2.0768
pair_coeff    7    7    lj/cut/tip4p/long    0.0    1.0

group            fram     id   1:864
864 atoms in group fram
group            water    id   865:1248
384 atoms in group water

############################ Record thermodynamic data #################################################
            thermo              10000
            thermo_style        custom step etotal enthalpy vol press temp cella cellb cellc cellalpha cellbeta cellgamma
            change_box all triclinic
Changing box ...
  triclinic box = (0 0 0) to (21.85 21.56667 27.377719) with tilt (-3.760108 -4.482163 -3.352298)
            kspace_style     pppm/tip4p 1.0e-6

########################### Minimization #########################################
            fix freeze fram  setforce 0.0 0.0 0.0
            min_style   cg
            min_modify  line quadratic dmax 0.001
            minimize    1.0e-4 1.0e-6 10000 10000
PPPM initialization ...
  extracting TIP4P info from pair style
  G vector (1/distance) = 0.39367104
  grid = 32 36 48
  stencil order = 5
  estimated absolute RMS force accuracy = 0.00017807966
  estimated relative force accuracy = 5.3628161e-07
  3d grid and FFT values/proc = 17825 6912
Generated 0 of 21 mixed pair_coeff terms from geometric mixing rule
  update every 1 steps, delay 0 steps, check yes
Step         TotEng        Enthalpy        Volume         Press           Temp          Cella          Cellb          Cellc        CellAlpha       CellBeta      CellGamma
0   10582.131      21212.984      12901.25       56501.559      0              21.85          21.892         27.944001      95.2           99.230001      99.89
Loop time of 12.303 on 8 procs for 3790 steps with 1248 atoms

Minimization stats:
  Stopping criterion = energy tolerance
  Energy initial, next-to-last, final =
  Force two-norm initial, final = 637.46039 51.610608
  Force max component initial, final = 67.580698 6.7370228
  Final line search alpha, max atom move = 0.00014835497 0.00099947083
  Iterations, force evaluations = 3790 3790

################################# pre-run setting #####################################################
            timestep            1
            run_style           verlet
            velocity            all create 298 123456 rot yes mom yes dist gaussian
            fix                 1 water shake 0.0001 20 0 b 8 a 13
       0 = # of size 2 clusters
       0 = # of size 3 clusters
       0 = # of size 4 clusters
     128 = # of frozen angles
  find clusters CPU = 0.000 seconds

############################### NVT ###########################################################

            fix         NVT_ENSEMBLE water nvt temp 298 298 100

            fix         COM fram recenter INIT INIT INIT

            dump        nvt_struc fram xyz 1000000 nvt_framework.xyz
            dump_modify nvt_struc element Zn H C N O O H

            dump        water_coord water xyz 1000000 water_coordinates.xyz
            dump_modify water_coord element Zn H C N O O H

            timestep    1.0
            run         1000000
PPPM initialization ...
  extracting TIP4P info from pair style
  G vector (1/distance) = 0.39367104
  grid = 32 36 48
  stencil order = 5
  estimated absolute RMS force accuracy = 0.00017807966
  estimated relative force accuracy = 5.3628161e-07
  3d grid and FFT values/proc = 17825 6912
Generated 0 of 21 mixed pair_coeff terms from geometric mixing rule
Step         TotEng        Enthalpy        Volume         Press           Temp          Cella          Cellb          Cellc        CellAlpha       CellBeta      CellGamma
3790   5045.5878      15529.331      12901.25       55719.692      332.08758      21.85          21.892         27.944001      95.2           99.230001      99.89
Averages over the last 51 of 102 rows, steps 510000 to 1003790:
TotEng Enthalpy Volume Press Temp Cella Cellb Cellc CellAlpha CellBeta CellGamma
4251.95 14857.1 12901.2 56365 295.976 21.85 21.892 27.944 95.2 99.23 99.89
Loop time of 3123.56 on 8 procs for 1000000 steps with 1248 atoms
